Version 4.1
SHEET 1 3240 680
WIRE -768 -1152 -768 -1232
WIRE -1312 -1136 -1312 -1184
WIRE -592 -1072 -592 -1136
WIRE -768 -1056 -768 -1072
WIRE -768 -1040 -768 -1056
WIRE -1312 -1024 -1312 -1056
WIRE 768 -1008 768 -1072
WIRE -768 -944 -768 -976
WIRE 768 -832 768 -928
WIRE -624 -672 -672 -672
WIRE -464 -672 -544 -672
WIRE -1408 -560 -1648 -560
WIRE -1152 -560 -1328 -560
WIRE -672 -544 -672 -672
WIRE -608 -544 -672 -544
WIRE -464 -544 -464 -672
WIRE -464 -544 -544 -544
WIRE 1520 -512 1456 -512
WIRE 1696 -512 1584 -512
WIRE 2288 -512 2288 -560
WIRE 0 -480 -160 -480
WIRE 256 -480 80 -480
WIRE 272 -480 256 -480
WIRE -1296 -448 -1328 -448
WIRE -560 -432 -592 -432
WIRE 2240 -432 1760 -432
WIRE -1648 -400 -1648 -560
WIRE -1376 -400 -1648 -400
WIRE -1296 -400 -1296 -448
WIRE -1376 -384 -1376 -400
WIRE -1328 -384 -1376 -384
WIRE -672 -384 -672 -544
WIRE -624 -384 -672 -384
WIRE -560 -384 -560 -432
WIRE 160 -384 112 -384
WIRE 176 -384 160 -384
WIRE -1152 -368 -1152 -560
WIRE -1152 -368 -1264 -368
WIRE -800 -368 -1152 -368
WIRE -672 -368 -672 -384
WIRE -672 -368 -720 -368
WIRE -624 -368 -624 -384
WIRE -592 -368 -624 -368
WIRE -160 -368 -160 -480
WIRE -160 -368 -176 -368
WIRE -112 -368 -160 -368
WIRE -1328 -352 -1360 -352
WIRE -464 -352 -464 -544
WIRE -464 -352 -528 -352
WIRE -288 -352 -464 -352
WIRE 144 -352 112 -352
WIRE 1456 -352 1456 -512
WIRE 1504 -352 1456 -352
WIRE 1696 -352 1696 -512
WIRE 1696 -352 1616 -352
WIRE 1824 -352 1696 -352
WIRE -1360 -336 -1360 -352
WIRE -1360 -336 -1392 -336
WIRE -592 -336 -624 -336
WIRE -112 -336 -176 -336
WIRE -1648 -320 -1648 -400
WIRE -624 -320 -624 -336
WIRE -624 -320 -688 -320
WIRE 224 -320 112 -320
WIRE 256 -320 256 -480
WIRE 256 -320 224 -320
WIRE 272 -320 256 -320
WIRE 1504 -320 1328 -320
WIRE 1760 -320 1760 -432
WIRE 1760 -320 1616 -320
WIRE -160 -304 -176 -304
WIRE -112 -304 -160 -304
WIRE 2976 -304 2944 -304
WIRE 2992 -304 2976 -304
WIRE 3104 -304 3072 -304
WIRE 3184 -304 3104 -304
WIRE -1296 -288 -1296 -336
WIRE -1296 -288 -1328 -288
WIRE 160 -288 160 -384
WIRE 160 -288 112 -288
WIRE 1456 -288 1456 -352
WIRE 1504 -288 1456 -288
WIRE 1824 -288 1616 -288
WIRE 2128 -288 1824 -288
WIRE 2288 -288 2288 -416
WIRE 2288 -288 2128 -288
WIRE -560 -272 -560 -320
WIRE -560 -272 -592 -272
WIRE 3184 -272 3184 -304
WIRE -1392 -256 -1392 -336
WIRE -1152 -256 -1152 -288
WIRE -1152 -256 -1392 -256
WIRE 1504 -256 1456 -256
WIRE 1760 -256 1616 -256
WIRE -1152 -240 -1152 -256
WIRE 2976 -224 2976 -304
WIRE 3104 -224 3104 -304
WIRE 2288 -208 2288 -288
WIRE -160 -176 -160 -304
WIRE 144 -176 -160 -176
WIRE 224 -176 224 -320
WIRE -688 -160 -688 -320
WIRE 1456 -160 1456 -256
WIRE 1760 -128 1760 -256
WIRE 2240 -128 1760 -128
WIRE -1648 -112 -1648 -256
WIRE -1152 -112 -1152 -160
WIRE 2976 -64 2976 -160
WIRE 3088 -64 2976 -64
WIRE 3104 -64 3104 -160
WIRE 3104 -64 3088 -64
WIRE 3184 -64 3184 -192
WIRE 3184 -64 3104 -64
WIRE 2288 112 2288 -112
FLAG 1328 -320 PWM
IOPIN 1328 -320 In
FLAG 1456 -160 0
FLAG -1648 -112 0
FLAG -1152 -368 Square
FLAG -464 -352 Triangle
FLAG -1152 -112 0
FLAG -688 -160 0
FLAG -592 -432 v+
IOPIN -592 -432 In
FLAG -1328 -448 v+
IOPIN -1328 -448 In
FLAG -592 -272 v-
IOPIN -592 -272 In
FLAG -1328 -288 v-
IOPIN -1328 -288 In
FLAG -768 -1232 v+
IOPIN -768 -1232 Out
FLAG -768 -1056 0
FLAG -1312 -1024 0
FLAG -592 -992 0
FLAG -1312 -1184 Tri
FLAG -592 -1136 sig
FLAG -768 -944 v-
IOPIN -768 -944 Out
FLAG 272 -320 PWM
IOPIN 272 -320 Out
FLAG -176 -336 sig
FLAG -176 -304 v+
IOPIN -176 -304 In
FLAG 176 -384 v-
IOPIN 176 -384 In
FLAG -176 -368 Triangle
FLAG 768 -832 0
FLAG 768 -1072 VCC
FLAG 1456 -512 VCC
FLAG 2288 112 0
FLAG 2128 -288 vs
FLAG 2288 -288 V_out
IOPIN 2288 -288 Out
FLAG 2288 -560 VCC
FLAG 3184 -304 out
FLAG 3088 -64 0
FLAG 2864 -304 V_out
IOPIN 2864 -304 In
SYMBOL MyComponents\\IR2104 1552 -304 R0
SYMATTR InstName U1
SYMBOL cap -1664 -320 R0
SYMATTR InstName C1
SYMATTR Value 330p
SYMBOL res -1168 -384 R0
SYMATTR InstName R1
SYMATTR Value 10k
SYMBOL res -1168 -256 R0
SYMATTR InstName R2
SYMATTR Value 10k
SYMBOL res -1312 -576 R90
WINDOW 0 0 56 VBottom 2
WINDOW 3 32 56 VTop 2
SYMATTR InstName R3
SYMATTR Value 3.9k
SYMBOL res -704 -384 R90
WINDOW 0 0 56 VBottom 2
WINDOW 3 32 56 VTop 2
SYMATTR InstName R4
SYMATTR Value 35k
SYMBOL cap -544 -560 R90
WINDOW 0 0 32 VBottom 2
WINDOW 3 32 32 VTop 2
SYMATTR InstName C2
SYMATTR Value 47p
SYMBOL res -528 -688 R90
WINDOW 0 0 56 VBottom 2
WINDOW 3 32 56 VTop 2
SYMATTR InstName R5
SYMATTR Value 100k
SYMBOL OpAmps\\AD8065 -1296 -432 R0
SYMATTR InstName U2
SYMBOL OpAmps\\AD8065 -560 -416 R0
SYMATTR InstName U3
SYMBOL voltage -768 -1168 R0
WINDOW 123 0 0 Left 0
WINDOW 39 0 0 Left 0
SYMATTR InstName V1
SYMATTR Value 5
SYMBOL voltage -592 -1088 R0
WINDOW 123 0 0 Left 0
WINDOW 39 0 0 Left 0
SYMATTR InstName V2
SYMATTR Value SINE(0 2.9 20k)
SYMBOL voltage -1312 -1152 R0
WINDOW 123 0 0 Left 0
WINDOW 39 0 0 Left 0
SYMATTR InstName V3
SYMATTR Value PULSE(-3 3 0 {Tr} {Tf} 0 {T})
SYMBOL voltage -768 -1072 R0
WINDOW 123 0 0 Left 0
WINDOW 39 0 0 Left 0
SYMATTR InstName V4
SYMATTR Value 5
SYMBOL MyComponents\\LM311 0 -336 R0
SYMATTR InstName U4
SYMBOL res 240 -192 R90
WINDOW 0 0 56 VBottom 2
WINDOW 3 32 56 VTop 2
SYMATTR InstName R6
SYMATTR Value 1k
SYMBOL res 96 -496 R90
WINDOW 0 0 56 VBottom 2
WINDOW 3 32 56 VTop 2
SYMATTR InstName R7
SYMATTR Value 10Meg
SYMBOL diode 1520 -496 R270
WINDOW 0 32 32 VTop 2
WINDOW 3 0 32 VBottom 2
SYMATTR InstName D1
SYMATTR Value MUR860G
SYMBOL cap 1808 -352 R0
SYMATTR InstName C3
SYMATTR Value 100n
SYMBOL voltage 768 -1024 R0
WINDOW 123 0 0 Left 0
WINDOW 39 0 0 Left 0
SYMATTR InstName V5
SYMATTR Value 12
SYMBOL nmos 2240 -512 R0
SYMATTR InstName M1
SYMATTR Value IRF530
SYMBOL nmos 2240 -208 R0
SYMATTR InstName M2
SYMATTR Value IRF530
SYMBOL ind 2848 -288 R270
WINDOW 0 32 56 VTop 2
WINDOW 3 5 56 VBottom 2
SYMATTR InstName L1
SYMATTR Value 70µ
SYMATTR SpiceLine Rser=.1
SYMBOL cap 2960 -224 R0
SYMATTR InstName C4
SYMATTR Value 1.2µ
SYMBOL res 3168 -288 R0
SYMATTR InstName R8
SYMATTR Value 8
SYMBOL ind 2976 -288 R270
WINDOW 0 32 56 VTop 2
WINDOW 3 5 56 VBottom 2
SYMATTR InstName L2
SYMATTR Value 60µ
SYMATTR SpiceLine Rser=.1
SYMBOL cap 3088 -224 R0
SYMATTR InstName C5
SYMATTR Value 400n
TEXT -1088 280 Left 2 !.tran 1m
TEXT -1488 40 Left 3 ;Astable Multivibrator
TEXT -696 40 Left 3 ;Integrator Circuit
TEXT -344 -1176 Left 2 ;.tran 1000u
TEXT -1336 -920 Left 2 !.param f=300k\n.param Tr={1/(2*f)}\n.param Tf={1/(2*f)}\n.param T={1/f}
TEXT 1416 136 Left 2 !* MUR860G SPICE Model\n* Ultrafast Recovery Rectifier: 600V, 8A\n.MODEL MUR860G D (\n+ IS=1.03e-7 \n+ RS=0.038 \n+ N=1.8 \n+ TT=4.3e-8 \n+ CJO=2.2e-10 \n+ VJ=0.7 \n+ M=0.45 \n+ BV=600 \n+ IBV=1e-5 \n+ EG=1.11 \n+ XTI=3 \n+ T_MEAS=25)
